<?xml version="1.0" encoding="UTF-8"?>

<!-- generated on 2024-10-27 12:35:30 by Eclipse SUMO netconvert Version 1.20.0
<configuration xmlns:xsi="http://www.w3.org/2001/XMLSchema-instance" xsi:noNamespaceSchemaLocation="http://sumo.dlr.de/xsd/netconvertConfiguration.xsd">

    <input>
        <node-files value="park.nod.xml"/>
        <edge-files value="park.edg.xml"/>
    </input>

    <output>
        <output-file value="park.net.xml"/>
    </output>

</configuration>
-->

<net version="1.20" junctionCornerDetail="5" limitTurnSpeed="5.50" xmlns:xsi="http://www.w3.org/2001/XMLSchema-instance" xsi:noNamespaceSchemaLocation="http://sumo.dlr.de/xsd/net_file.xsd">

    <location netOffset="100.00,150.00" convBoundary="0.00,0.00,325.00,215.00" origBoundary="-500.00,-150.00,225.00,65.00" projParameter="!"/>

    <edge id=":backin_0" function="internal">
        <lane id=":backin_0_0" index="0" speed="3.90" length="2.58" shape="9.60,8.00 8.90,8.10 8.40,8.40 8.10,8.90 8.00,9.60"/>
        <lane id=":backin_0_1" index="1" speed="6.08" length="7.74" shape="9.60,4.80 7.50,5.10 6.00,6.00 5.10,7.50 4.80,9.60"/>
        <lane id=":backin_0_2" index="2" speed="7.66" length="12.90" shape="9.60,1.60 6.10,2.10 3.60,3.60 2.10,6.10 1.60,9.60"/>
    </edge>
    <edge id=":backout_0" function="internal">
        <lane id=":backout_0_0" index="0" speed="3.90" length="2.58" shape="317.00,9.60 316.90,8.90 316.60,8.40 316.10,8.10 315.40,8.00"/>
        <lane id=":backout_0_1" index="1" speed="6.08" length="7.74" shape="320.20,9.60 319.90,7.50 319.00,6.00 317.50,5.10 315.40,4.80"/>
        <lane id=":backout_0_2" index="2" speed="7.66" length="12.90" shape="323.40,9.60 322.90,6.10 321.40,3.60 318.90,2.10 315.40,1.60"/>
    </edge>
    <edge id=":cyber0_0" function="internal">
        <lane id=":cyber0_0_0" index="0" speed="11.39" length="29.84" shape="113.59,219.79 104.14,218.85 97.40,216.00 93.35,211.26 92.00,204.61"/>
        <lane id=":cyber0_0_1" index="1" speed="10.40" length="24.71" shape="113.59,216.59 105.55,215.85 99.80,213.60 96.35,209.86 95.20,204.61"/>
        <lane id=":cyber0_0_2" index="2" speed="9.83" length="21.98" shape="113.59,216.59 106.95,215.85 102.20,213.60 99.35,209.85 98.40,204.61"/>
    </edge>
    <edge id=":cyber0_3" function="internal">
        <lane id=":cyber0_3_0" index="0" speed="6.51" length="9.03" shape="108.00,204.61 108.35,207.06 109.40,208.81 111.15,209.86 113.60,210.21"/>
        <lane id=":cyber0_3_1" index="1" speed="8.00" length="14.19" shape="104.80,204.61 105.35,208.46 107.00,211.21 109.75,212.86 113.59,213.41"/>
    </edge>
    <edge id=":cyber1_0" function="internal">
        <lane id=":cyber1_0_0" index="0" speed="11.39" length="29.82" shape="137.00,204.61 135.65,211.25 131.60,215.99 124.85,218.84 115.41,219.79"/>
        <lane id=":cyber1_0_1" index="1" speed="10.40" length="24.70" shape="133.80,204.61 132.65,209.85 129.20,213.59 123.45,215.84 115.41,216.59"/>
    </edge>
    <edge id=":cyber1_2" function="internal">
        <lane id=":cyber1_2_0" index="0" speed="6.51" length="9.03" shape="115.40,210.21 117.85,209.86 119.60,208.81 120.65,207.06 121.00,204.61"/>
        <lane id=":cyber1_2_1" index="1" speed="8.00" length="14.19" shape="115.40,213.41 119.25,212.86 122.00,211.21 123.65,208.46 124.20,204.61"/>
        <lane id=":cyber1_2_2" index="2" speed="8.67" length="16.85" shape="115.40,213.41 120.65,212.86 124.40,211.21 126.65,208.46 127.40,204.61"/>
    </edge>
    <edge id=":cyberAlternative0_0" function="internal">
        <lane id=":cyberAlternative0_0_0" index="0" speed="11.39" length="29.84" shape="213.59,219.79 204.14,218.85 197.40,216.00 193.35,211.26 192.00,204.61"/>
        <lane id=":cyberAlternative0_0_1" index="1" speed="10.40" length="24.71" shape="213.59,216.59 205.55,215.85 199.80,213.60 196.35,209.86 195.20,204.61"/>
        <lane id=":cyberAlternative0_0_2" index="2" speed="9.83" length="21.98" shape="213.59,216.59 206.95,215.85 202.20,213.60 199.35,209.85 198.40,204.61"/>
    </edge>
    <edge id=":cyberAlternative0_3" function="internal">
        <lane id=":cyberAlternative0_3_0" index="0" speed="6.51" length="9.03" shape="208.00,204.61 208.35,207.06 209.40,208.81 211.15,209.86 213.60,210.21"/>
        <lane id=":cyberAlternative0_3_1" index="1" speed="8.00" length="14.19" shape="204.80,204.61 205.35,208.46 207.00,211.21 209.75,212.86 213.59,213.41"/>
    </edge>
    <edge id=":cyberAlternative1_0" function="internal">
        <lane id=":cyberAlternative1_0_0" index="0" speed="11.39" length="29.82" shape="237.00,204.61 235.65,211.25 231.60,215.99 224.85,218.84 215.41,219.79"/>
        <lane id=":cyberAlternative1_0_1" index="1" speed="10.40" length="24.70" shape="233.80,204.61 232.65,209.85 229.20,213.59 223.45,215.84 215.41,216.59"/>
    </edge>
    <edge id=":cyberAlternative1_2" function="internal">
        <lane id=":cyberAlternative1_2_0" index="0" speed="6.51" length="9.03" shape="215.40,210.21 217.85,209.86 219.60,208.81 220.65,207.06 221.00,204.61"/>
        <lane id=":cyberAlternative1_2_1" index="1" speed="8.00" length="14.19" shape="215.40,213.41 219.25,212.86 222.00,211.21 223.65,208.46 224.20,204.61"/>
        <lane id=":cyberAlternative1_2_2" index="2" speed="8.67" length="16.85" shape="215.40,213.41 220.65,212.86 224.40,211.21 226.65,208.46 227.40,204.61"/>
    </edge>
    <edge id=":cyberOutOfTown0_0" function="internal">
        <lane id=":cyberOutOfTown0_0_0" index="0" speed="11.39" length="29.84" shape="134.59,69.79 125.14,68.85 118.40,66.00 114.35,61.26 113.00,54.61"/>
        <lane id=":cyberOutOfTown0_0_1" index="1" speed="10.40" length="24.71" shape="134.59,66.59 126.55,65.85 120.80,63.60 117.35,59.86 116.20,54.61"/>
        <lane id=":cyberOutOfTown0_0_2" index="2" speed="9.83" length="21.98" shape="134.59,66.59 127.95,65.85 123.20,63.60 120.35,59.85 119.40,54.61"/>
    </edge>
    <edge id=":cyberOutOfTown0_3" function="internal">
        <lane id=":cyberOutOfTown0_3_0" index="0" speed="6.51" length="9.03" shape="129.00,54.61 129.35,57.06 130.40,58.81 132.15,59.86 134.60,60.21"/>
        <lane id=":cyberOutOfTown0_3_1" index="1" speed="8.00" length="14.19" shape="125.80,54.61 126.35,58.46 128.00,61.21 130.75,62.86 134.59,63.41"/>
    </edge>
    <edge id=":cyberOutOfTown1_0" function="internal">
        <lane id=":cyberOutOfTown1_0_0" index="0" speed="13.89" length="27.19" shape="163.59,69.79 136.41,69.79"/>
        <lane id=":cyberOutOfTown1_0_1" index="1" speed="13.89" length="27.19" shape="163.59,66.59 136.41,66.59"/>
    </edge>
    <edge id=":cyberOutOfTown1_2" function="internal">
        <lane id=":cyberOutOfTown1_2_0" index="0" speed="10.40" length="24.72" shape="163.59,66.59 155.55,65.85 149.80,63.60 146.35,59.85 145.20,54.61"/>
        <lane id=":cyberOutOfTown1_2_1" index="1" speed="9.83" length="21.98" shape="163.59,66.59 156.95,65.85 152.20,63.60 149.35,59.85 148.40,54.61"/>
    </edge>
    <edge id=":cyberOutOfTown1_4" function="internal">
        <lane id=":cyberOutOfTown1_4_0" index="0" speed="3.64" length="4.65" shape="163.59,66.59 162.40,65.79 162.00,65.00 162.40,64.20 163.60,63.41"/>
    </edge>
    <edge id=":cyberOutOfTown1_5" function="internal">
        <lane id=":cyberOutOfTown1_5_0" index="0" speed="6.51" length="9.03" shape="158.00,54.61 158.35,57.06 159.40,58.81 161.15,59.86 163.60,60.21"/>
        <lane id=":cyberOutOfTown1_5_1" index="1" speed="8.00" length="14.19" shape="154.80,54.61 155.35,58.46 157.00,61.21 159.75,62.86 163.60,63.41"/>
    </edge>
    <edge id=":cyberOutOfTown1_7" function="internal">
        <lane id=":cyberOutOfTown1_7_0" index="0" speed="9.84" length="21.97" shape="151.60,54.61 150.65,59.85 147.80,63.59 143.05,65.84 136.41,66.59"/>
    </edge>
    <edge id=":cyberOutOfTown1_8" function="internal">
        <lane id=":cyberOutOfTown1_8_0" index="0" speed="3.65" length="4.67" shape="151.60,54.61 150.80,55.81 150.00,56.21 149.20,55.81 148.40,54.61"/>
    </edge>
    <edge id=":cyberOutOfTown1_9" function="internal">
        <lane id=":cyberOutOfTown1_9_0" index="0" speed="6.51" length="9.03" shape="136.40,60.21 138.85,59.86 140.60,58.81 141.65,57.06 142.00,54.61"/>
        <lane id=":cyberOutOfTown1_9_1" index="1" speed="8.00" length="14.19" shape="136.40,63.41 140.25,62.86 143.00,61.21 144.65,58.46 145.20,54.61"/>
    </edge>
    <edge id=":cyberOutOfTown1_11" function="internal">
        <lane id=":cyberOutOfTown1_11_0" index="0" speed="13.89" length="27.30" shape="136.40,63.41 143.46,62.91 150.00,61.81 156.54,60.71 163.60,60.21"/>
        <lane id=":cyberOutOfTown1_11_1" index="1" speed="13.89" length="27.30" shape="136.40,63.41 163.60,63.41"/>
    </edge>
    <edge id=":cyberOutOfTown1_13" function="internal">
        <lane id=":cyberOutOfTown1_13_0" index="0" speed="3.64" length="4.64" shape="136.40,63.41 137.60,64.20 137.99,65.00 137.60,65.79 136.41,66.59"/>
    </edge>
    <edge id=":cyberOutOfTown2_0" function="internal">
        <lane id=":cyberOutOfTown2_0_0" index="0" speed="13.89" length="27.19" shape="192.59,69.79 165.41,69.79"/>
        <lane id=":cyberOutOfTown2_0_1" index="1" speed="13.89" length="27.19" shape="192.59,66.59 165.41,66.59"/>
    </edge>
    <edge id=":cyberOutOfTown2_2" function="internal">
        <lane id=":cyberOutOfTown2_2_0" index="0" speed="10.40" length="24.72" shape="192.59,66.59 184.55,65.85 178.80,63.60 175.35,59.85 174.20,54.61"/>
        <lane id=":cyberOutOfTown2_2_1" index="1" speed="9.83" length="21.98" shape="192.59,66.59 185.95,65.85 181.20,63.60 178.35,59.85 177.40,54.61"/>
    </edge>
    <edge id=":cyberOutOfTown2_4" function="internal">
        <lane id=":cyberOutOfTown2_4_0" index="0" speed="3.64" length="4.65" shape="192.59,66.59 191.40,65.79 191.00,65.00 191.40,64.20 192.60,63.41"/>
    </edge>
    <edge id=":cyberOutOfTown2_5" function="internal">
        <lane id=":cyberOutOfTown2_5_0" index="0" speed="6.51" length="9.03" shape="187.00,54.61 187.35,57.06 188.40,58.81 190.15,59.86 192.60,60.21"/>
        <lane id=":cyberOutOfTown2_5_1" index="1" speed="8.00" length="14.19" shape="183.80,54.61 184.35,58.46 186.00,61.21 188.75,62.86 192.60,63.41"/>
    </edge>
    <edge id=":cyberOutOfTown2_7" function="internal">
        <lane id=":cyberOutOfTown2_7_0" index="0" speed="9.84" length="21.97" shape="180.60,54.61 179.65,59.85 176.80,63.59 172.05,65.84 165.41,66.59"/>
    </edge>
    <edge id=":cyberOutOfTown2_8" function="internal">
        <lane id=":cyberOutOfTown2_8_0" index="0" speed="3.65" length="4.67" shape="180.60,54.61 179.80,55.81 179.00,56.21 178.20,55.81 177.40,54.61"/>
    </edge>
    <edge id=":cyberOutOfTown2_9" function="internal">
        <lane id=":cyberOutOfTown2_9_0" index="0" speed="6.51" length="9.03" shape="165.40,60.21 167.85,59.86 169.60,58.81 170.65,57.06 171.00,54.61"/>
        <lane id=":cyberOutOfTown2_9_1" index="1" speed="8.00" length="14.19" shape="165.40,63.41 169.25,62.86 172.00,61.21 173.65,58.46 174.20,54.61"/>
    </edge>
    <edge id=":cyberOutOfTown2_11" function="internal">
        <lane id=":cyberOutOfTown2_11_0" index="0" speed="13.89" length="27.30" shape="165.40,63.41 172.46,62.91 179.00,61.81 185.54,60.71 192.60,60.21"/>
        <lane id=":cyberOutOfTown2_11_1" index="1" speed="13.89" length="27.30" shape="165.40,63.41 192.60,63.41"/>
    </edge>
    <edge id=":cyberOutOfTown2_13" function="internal">
        <lane id=":cyberOutOfTown2_13_0" index="0" speed="3.64" length="4.64" shape="165.40,63.41 166.60,64.20 166.99,65.00 166.60,65.79 165.41,66.59"/>
    </edge>
    <edge id=":cyberOutOfTown3_0" function="internal">
        <lane id=":cyberOutOfTown3_0_0" index="0" speed="11.39" length="29.82" shape="216.00,54.61 214.65,61.25 210.60,65.99 203.85,68.84 194.41,69.79"/>
        <lane id=":cyberOutOfTown3_0_1" index="1" speed="10.40" length="24.70" shape="212.80,54.61 211.65,59.85 208.20,63.59 202.45,65.84 194.41,66.59"/>
    </edge>
    <edge id=":cyberOutOfTown3_2" function="internal">
        <lane id=":cyberOutOfTown3_2_0" index="0" speed="6.51" length="9.03" shape="194.40,60.21 196.85,59.86 198.60,58.81 199.65,57.06 200.00,54.61"/>
        <lane id=":cyberOutOfTown3_2_1" index="1" speed="8.00" length="14.19" shape="194.40,63.41 198.25,62.86 201.00,61.21 202.65,58.46 203.20,54.61"/>
        <lane id=":cyberOutOfTown3_2_2" index="2" speed="8.67" length="16.85" shape="194.40,63.41 199.65,62.86 203.40,61.21 205.65,58.46 206.40,54.61"/>
    </edge>
    <edge id=":in_0" function="internal">
        <lane id=":in_0_0" index="0" speed="3.90" length="2.58" shape="8.00,140.40 8.10,141.10 8.40,141.60 8.90,141.90 9.60,142.00"/>
        <lane id=":in_0_1" index="1" speed="6.08" length="7.74" shape="4.80,140.40 5.10,142.50 6.00,144.00 7.50,144.90 9.60,145.20"/>
        <lane id=":in_0_2" index="2" speed="7.66" length="12.90" shape="1.60,140.40 2.10,143.90 3.60,146.40 6.10,147.90 9.60,148.40"/>
    </edge>
    <edge id=":main0_0" function="internal">
        <lane id=":main0_0_0" index="0" speed="10.17" length="1.21" shape="92.00,151.50 92.33,150.34"/>
        <lane id=":main0_0_1" index="1" speed="9.08" length="1.01" shape="95.20,151.50 95.54,150.55"/>
        <lane id=":main0_0_2" index="2" speed="7.88" length="0.40" shape="98.40,151.50 98.60,151.16"/>
    </edge>
    <edge id=":main0_3" function="internal">
        <lane id=":main0_3_0" index="0" speed="3.65" length="0.35" shape="98.40,151.50 98.60,151.21"/>
    </edge>
    <edge id=":main0_10" function="internal">
        <lane id=":main0_10_0" index="0" speed="10.17" length="22.37" shape="92.33,150.34 93.19,147.34 96.78,144.38 102.74,142.59 111.10,142.00"/>
    </edge>
    <edge id=":main0_11" function="internal">
        <lane id=":main0_11_0" index="0" speed="9.08" length="17.57" shape="95.54,150.55 96.19,148.74 99.18,146.77 104.14,145.59 111.10,145.20"/>
    </edge>
    <edge id=":main0_12" function="internal">
        <lane id=":main0_12_0" index="0" speed="7.88" length="13.32" shape="98.60,151.16 99.19,150.14 101.58,149.18 105.54,148.59 111.10,148.40"/>
    </edge>
    <edge id=":main0_13" function="internal">
        <lane id=":main0_13_0" index="0" speed="3.65" length="4.32" shape="98.60,151.21 99.20,150.30 100.00,149.90 100.80,150.30 101.60,151.50"/>
    </edge>
    <edge id=":main0_4" function="internal">
        <lane id=":main0_4_0" index="0" speed="13.89" length="22.20" shape="88.90,142.00 111.10,142.00"/>
        <lane id=":main0_4_1" index="1" speed="13.89" length="22.20" shape="88.90,145.20 111.10,145.20"/>
        <lane id=":main0_4_2" index="2" speed="13.89" length="22.20" shape="88.90,148.40 111.10,148.40"/>
    </edge>
    <edge id=":main0_7" function="internal">
        <lane id=":main0_7_0" index="0" speed="9.38" length="19.87" shape="88.90,148.40 97.26,148.59 103.22,149.18 106.81,150.14 108.00,151.50"/>
        <lane id=":main0_7_1" index="1" speed="8.65" length="16.78" shape="88.90,148.40 95.86,148.59 100.83,149.18 103.81,150.14 104.80,151.50"/>
        <lane id=":main0_7_2" index="2" speed="7.88" length="13.71" shape="88.90,148.40 94.46,148.59 98.42,149.18 100.81,150.14 101.60,151.50"/>
    </edge>
    <edge id=":main1_0" function="internal">
        <lane id=":main1_0_0" index="0" speed="10.17" length="1.21" shape="121.00,151.50 121.33,150.34"/>
        <lane id=":main1_0_1" index="1" speed="9.08" length="1.01" shape="124.20,151.50 124.54,150.55"/>
        <lane id=":main1_0_2" index="2" speed="7.88" length="0.40" shape="127.40,151.50 127.60,151.16"/>
    </edge>
    <edge id=":main1_3" function="internal">
        <lane id=":main1_3_0" index="0" speed="3.65" length="0.35" shape="127.40,151.50 127.60,151.21"/>
    </edge>
    <edge id=":main1_10" function="internal">
        <lane id=":main1_10_0" index="0" speed="10.17" length="22.37" shape="121.33,150.34 122.19,147.34 125.78,144.38 131.74,142.59 140.10,142.00"/>
    </edge>
    <edge id=":main1_11" function="internal">
        <lane id=":main1_11_0" index="0" speed="9.08" length="17.57" shape="124.54,150.55 125.19,148.74 128.18,146.77 133.14,145.59 140.10,145.20"/>
    </edge>
    <edge id=":main1_12" function="internal">
        <lane id=":main1_12_0" index="0" speed="7.88" length="13.32" shape="127.60,151.16 128.19,150.14 130.58,149.18 134.54,148.59 140.10,148.40"/>
    </edge>
    <edge id=":main1_13" function="internal">
        <lane id=":main1_13_0" index="0" speed="3.65" length="4.32" shape="127.60,151.21 128.20,150.30 129.00,149.90 129.80,150.30 130.60,151.50"/>
    </edge>
    <edge id=":main1_4" function="internal">
        <lane id=":main1_4_0" index="0" speed="13.89" length="22.20" shape="117.90,142.00 140.10,142.00"/>
        <lane id=":main1_4_1" index="1" speed="13.89" length="22.20" shape="117.90,145.20 140.10,145.20"/>
        <lane id=":main1_4_2" index="2" speed="13.89" length="22.20" shape="117.90,148.40 140.10,148.40"/>
    </edge>
    <edge id=":main1_7" function="internal">
        <lane id=":main1_7_0" index="0" speed="9.38" length="19.87" shape="117.90,148.40 126.26,148.59 132.22,149.18 135.81,150.14 137.00,151.50"/>
        <lane id=":main1_7_1" index="1" speed="8.65" length="16.78" shape="117.90,148.40 124.86,148.59 129.82,149.18 132.81,150.14 133.80,151.50"/>
        <lane id=":main1_7_2" index="2" speed="7.88" length="13.71" shape="117.90,148.40 123.46,148.59 127.42,149.18 129.81,150.14 130.60,151.50"/>
    </edge>
    <edge id=":mainAlternative0_0" function="internal">
        <lane id=":mainAlternative0_0_0" index="0" speed="10.17" length="1.21" shape="192.00,151.50 192.33,150.34"/>
        <lane id=":mainAlternative0_0_1" index="1" speed="9.08" length="1.01" shape="195.20,151.50 195.54,150.55"/>
        <lane id=":mainAlternative0_0_2" index="2" speed="7.88" length="0.40" shape="198.40,151.50 198.60,151.16"/>
    </edge>
    <edge id=":mainAlternative0_3" function="internal">
        <lane id=":mainAlternative0_3_0" index="0" speed="3.65" length="0.35" shape="198.40,151.50 198.60,151.21"/>
    </edge>
    <edge id=":mainAlternative0_10" function="internal">
        <lane id=":mainAlternative0_10_0" index="0" speed="10.17" length="22.37" shape="192.33,150.34 193.19,147.34 196.78,144.38 202.74,142.59 211.10,142.00"/>
    </edge>
    <edge id=":mainAlternative0_11" function="internal">
        <lane id=":mainAlternative0_11_0" index="0" speed="9.08" length="17.57" shape="195.54,150.55 196.19,148.74 199.17,146.77 204.14,145.59 211.10,145.20"/>
    </edge>
    <edge id=":mainAlternative0_12" function="internal">
        <lane id=":mainAlternative0_12_0" index="0" speed="7.88" length="13.32" shape="198.60,151.16 199.19,150.14 201.58,149.18 205.54,148.59 211.10,148.40"/>
    </edge>
    <edge id=":mainAlternative0_13" function="internal">
        <lane id=":mainAlternative0_13_0" index="0" speed="3.65" length="4.32" shape="198.60,151.21 199.20,150.30 200.00,149.90 200.80,150.30 201.60,151.50"/>
    </edge>
    <edge id=":mainAlternative0_4" function="internal">
        <lane id=":mainAlternative0_4_0" index="0" speed="13.89" length="22.20" shape="188.90,142.00 211.10,142.00"/>
        <lane id=":mainAlternative0_4_1" index="1" speed="13.89" length="22.20" shape="188.90,145.20 211.10,145.20"/>
        <lane id=":mainAlternative0_4_2" index="2" speed="13.89" length="22.20" shape="188.90,148.40 211.10,148.40"/>
    </edge>
    <edge id=":mainAlternative0_7" function="internal">
        <lane id=":mainAlternative0_7_0" index="0" speed="9.38" length="19.87" shape="188.90,148.40 197.26,148.59 203.22,149.18 206.81,150.14 208.00,151.50"/>
        <lane id=":mainAlternative0_7_1" index="1" speed="8.65" length="16.78" shape="188.90,148.40 195.86,148.59 200.82,149.18 203.81,150.14 204.80,151.50"/>
        <lane id=":mainAlternative0_7_2" index="2" speed="7.88" length="13.71" shape="188.90,148.40 194.46,148.59 198.43,149.18 200.81,150.14 201.60,151.50"/>
    </edge>
    <edge id=":mainAlternative1_0" function="internal">
        <lane id=":mainAlternative1_0_0" index="0" speed="10.17" length="1.21" shape="221.00,151.50 221.33,150.34"/>
        <lane id=":mainAlternative1_0_1" index="1" speed="9.08" length="1.01" shape="224.20,151.50 224.54,150.55"/>
        <lane id=":mainAlternative1_0_2" index="2" speed="7.88" length="0.40" shape="227.40,151.50 227.60,151.16"/>
    </edge>
    <edge id=":mainAlternative1_3" function="internal">
        <lane id=":mainAlternative1_3_0" index="0" speed="3.65" length="0.35" shape="227.40,151.50 227.60,151.21"/>
    </edge>
    <edge id=":mainAlternative1_10" function="internal">
        <lane id=":mainAlternative1_10_0" index="0" speed="10.17" length="22.37" shape="221.33,150.34 222.19,147.34 225.78,144.38 231.74,142.59 240.10,142.00"/>
    </edge>
    <edge id=":mainAlternative1_11" function="internal">
        <lane id=":mainAlternative1_11_0" index="0" speed="9.08" length="17.57" shape="224.54,150.55 225.19,148.74 228.17,146.77 233.14,145.59 240.10,145.20"/>
    </edge>
    <edge id=":mainAlternative1_12" function="internal">
        <lane id=":mainAlternative1_12_0" index="0" speed="7.88" length="13.32" shape="227.60,151.16 228.19,150.14 230.58,149.18 234.54,148.59 240.10,148.40"/>
    </edge>
    <edge id=":mainAlternative1_13" function="internal">
        <lane id=":mainAlternative1_13_0" index="0" speed="3.65" length="4.32" shape="227.60,151.21 228.20,150.30 229.00,149.90 229.80,150.30 230.60,151.50"/>
    </edge>
    <edge id=":mainAlternative1_4" function="internal">
        <lane id=":mainAlternative1_4_0" index="0" speed="13.89" length="22.20" shape="217.90,142.00 240.10,142.00"/>
        <lane id=":mainAlternative1_4_1" index="1" speed="13.89" length="22.20" shape="217.90,145.20 240.10,145.20"/>
        <lane id=":mainAlternative1_4_2" index="2" speed="13.89" length="22.20" shape="217.90,148.40 240.10,148.40"/>
    </edge>
    <edge id=":mainAlternative1_7" function="internal">
        <lane id=":mainAlternative1_7_0" index="0" speed="9.38" length="19.87" shape="217.90,148.40 226.26,148.59 232.22,149.18 235.81,150.14 237.00,151.50"/>
        <lane id=":mainAlternative1_7_1" index="1" speed="8.65" length="16.78" shape="217.90,148.40 224.86,148.59 229.82,149.18 232.81,150.14 233.80,151.50"/>
        <lane id=":mainAlternative1_7_2" index="2" speed="7.88" length="13.71" shape="217.90,148.40 223.46,148.59 227.42,149.18 229.81,150.14 230.60,151.50"/>
    </edge>
    <edge id=":mainOutOfTown0_0" function="internal">
        <lane id=":mainOutOfTown0_0_0" index="0" speed="6.51" length="9.03" shape="113.00,13.60 112.65,11.15 111.60,9.40 109.85,8.35 107.40,8.00"/>
        <lane id=":mainOutOfTown0_0_1" index="1" speed="8.00" length="14.19" shape="116.20,13.60 115.65,9.75 114.00,7.00 111.25,5.35 107.40,4.80"/>
        <lane id=":mainOutOfTown0_0_2" index="2" speed="9.26" length="19.35" shape="119.40,13.60 118.65,8.35 116.40,4.60 112.65,2.35 107.40,1.60"/>
    </edge>
    <edge id=":mainOutOfTown0_3" function="internal">
        <lane id=":mainOutOfTown0_3_0" index="0" speed="3.65" length="1.44" shape="119.40,13.60 120.20,12.40"/>
    </edge>
    <edge id=":mainOutOfTown0_10" function="internal">
        <lane id=":mainOutOfTown0_10_0" index="0" speed="3.65" length="3.23" shape="120.20,12.40 121.00,12.00 121.80,12.40 122.60,13.60"/>
    </edge>
    <edge id=":mainOutOfTown0_4" function="internal">
        <lane id=":mainOutOfTown0_4_0" index="0" speed="6.51" length="9.03" shape="134.60,8.00 132.15,8.35 130.40,9.40 129.35,11.15 129.00,13.60"/>
        <lane id=":mainOutOfTown0_4_1" index="1" speed="7.33" length="11.73" shape="134.60,8.00 130.75,8.35 128.00,9.40 126.35,11.15 125.80,13.60"/>
        <lane id=":mainOutOfTown0_4_2" index="2" speed="8.10" length="14.57" shape="134.60,8.00 129.35,8.35 125.60,9.40 123.35,11.15 122.60,13.60"/>
    </edge>
    <edge id=":mainOutOfTown0_7" function="internal">
        <lane id=":mainOutOfTown0_7_0" index="0" speed="13.89" length="27.20" shape="134.60,8.00 107.40,8.00"/>
        <lane id=":mainOutOfTown0_7_1" index="1" speed="13.89" length="27.20" shape="134.60,4.80 107.40,4.80"/>
        <lane id=":mainOutOfTown0_7_2" index="2" speed="13.89" length="27.20" shape="134.60,1.60 107.40,1.60"/>
    </edge>
    <edge id=":mainOutOfTown1_0" function="internal">
        <lane id=":mainOutOfTown1_0_0" index="0" speed="6.51" length="9.03" shape="142.00,13.60 141.65,11.15 140.60,9.40 138.85,8.35 136.40,8.00"/>
        <lane id=":mainOutOfTown1_0_1" index="1" speed="8.00" length="14.19" shape="145.20,13.60 144.65,9.75 143.00,7.00 140.25,5.35 136.40,4.80"/>
        <lane id=":mainOutOfTown1_0_2" index="2" speed="9.26" length="19.35" shape="148.40,13.60 147.65,8.35 145.40,4.60 141.65,2.35 136.40,1.60"/>
    </edge>
    <edge id=":mainOutOfTown1_3" function="internal">
        <lane id=":mainOutOfTown1_3_0" index="0" speed="3.65" length="1.44" shape="148.40,13.60 149.20,12.40"/>
    </edge>
    <edge id=":mainOutOfTown1_10" function="internal">
        <lane id=":mainOutOfTown1_10_0" index="0" speed="3.65" length="3.23" shape="149.20,12.40 150.00,12.00 150.80,12.40 151.60,13.60"/>
    </edge>
    <edge id=":mainOutOfTown1_4" function="internal">
        <lane id=":mainOutOfTown1_4_0" index="0" speed="6.51" length="9.03" shape="163.60,8.00 161.15,8.35 159.40,9.40 158.35,11.15 158.00,13.60"/>
        <lane id=":mainOutOfTown1_4_1" index="1" speed="7.33" length="11.73" shape="163.60,8.00 159.75,8.35 157.00,9.40 155.35,11.15 154.80,13.60"/>
        <lane id=":mainOutOfTown1_4_2" index="2" speed="8.10" length="14.57" shape="163.60,8.00 158.35,8.35 154.60,9.40 152.35,11.15 151.60,13.60"/>
    </edge>
    <edge id=":mainOutOfTown1_7" function="internal">
        <lane id=":mainOutOfTown1_7_0" index="0" speed="13.89" length="27.20" shape="163.60,8.00 136.40,8.00"/>
        <lane id=":mainOutOfTown1_7_1" index="1" speed="13.89" length="27.20" shape="163.60,4.80 136.40,4.80"/>
        <lane id=":mainOutOfTown1_7_2" index="2" speed="13.89" length="27.20" shape="163.60,1.60 136.40,1.60"/>
    </edge>
    <edge id=":mainOutOfTown2_0" function="internal">
        <lane id=":mainOutOfTown2_0_0" index="0" speed="6.51" length="9.03" shape="171.00,13.60 170.65,11.15 169.60,9.40 167.85,8.35 165.40,8.00"/>
        <lane id=":mainOutOfTown2_0_1" index="1" speed="8.00" length="14.19" shape="174.20,13.60 173.65,9.75 172.00,7.00 169.25,5.35 165.40,4.80"/>
        <lane id=":mainOutOfTown2_0_2" index="2" speed="9.26" length="19.35" shape="177.40,13.60 176.65,8.35 174.40,4.60 170.65,2.35 165.40,1.60"/>
    </edge>
    <edge id=":mainOutOfTown2_3" function="internal">
        <lane id=":mainOutOfTown2_3_0" index="0" speed="3.65" length="1.44" shape="177.40,13.60 178.20,12.40"/>
    </edge>
    <edge id=":mainOutOfTown2_10" function="internal">
        <lane id=":mainOutOfTown2_10_0" index="0" speed="3.65" length="3.23" shape="178.20,12.40 179.00,12.00 179.80,12.40 180.60,13.60"/>
    </edge>
    <edge id=":mainOutOfTown2_4" function="internal">
        <lane id=":mainOutOfTown2_4_0" index="0" speed="6.51" length="9.03" shape="192.60,8.00 190.15,8.35 188.40,9.40 187.35,11.15 187.00,13.60"/>
        <lane id=":mainOutOfTown2_4_1" index="1" speed="7.33" length="11.73" shape="192.60,8.00 188.75,8.35 186.00,9.40 184.35,11.15 183.80,13.60"/>
        <lane id=":mainOutOfTown2_4_2" index="2" speed="8.10" length="14.57" shape="192.60,8.00 187.35,8.35 183.60,9.40 181.35,11.15 180.60,13.60"/>
    </edge>
    <edge id=":mainOutOfTown2_7" function="internal">
        <lane id=":mainOutOfTown2_7_0" index="0" speed="13.89" length="27.20" shape="192.60,8.00 165.40,8.00"/>
        <lane id=":mainOutOfTown2_7_1" index="1" speed="13.89" length="27.20" shape="192.60,4.80 165.40,4.80"/>
        <lane id=":mainOutOfTown2_7_2" index="2" speed="13.89" length="27.20" shape="192.60,1.60 165.40,1.60"/>
    </edge>
    <edge id=":mainOutOfTown3_0" function="internal">
        <lane id=":mainOutOfTown3_0_0" index="0" speed="6.51" length="9.03" shape="200.00,13.60 199.65,11.15 198.60,9.40 196.85,8.35 194.40,8.00"/>
        <lane id=":mainOutOfTown3_0_1" index="1" speed="8.00" length="14.19" shape="203.20,13.60 202.65,9.75 201.00,7.00 198.25,5.35 194.40,4.80"/>
        <lane id=":mainOutOfTown3_0_2" index="2" speed="9.26" length="19.35" shape="206.40,13.60 205.65,8.35 203.40,4.60 199.65,2.35 194.40,1.60"/>
    </edge>
    <edge id=":mainOutOfTown3_3" function="internal">
        <lane id=":mainOutOfTown3_3_0" index="0" speed="3.65" length="1.44" shape="206.40,13.60 207.20,12.40"/>
    </edge>
    <edge id=":mainOutOfTown3_10" function="internal">
        <lane id=":mainOutOfTown3_10_0" index="0" speed="3.65" length="3.23" shape="207.20,12.40 208.00,12.00 208.80,12.40 209.60,13.60"/>
    </edge>
    <edge id=":mainOutOfTown3_4" function="internal">
        <lane id=":mainOutOfTown3_4_0" index="0" speed="6.51" length="9.03" shape="221.60,8.00 219.15,8.35 217.40,9.40 216.35,11.15 216.00,13.60"/>
        <lane id=":mainOutOfTown3_4_1" index="1" speed="7.33" length="11.73" shape="221.60,8.00 217.75,8.35 215.00,9.40 213.35,11.15 212.80,13.60"/>
        <lane id=":mainOutOfTown3_4_2" index="2" speed="8.10" length="14.57" shape="221.60,8.00 216.35,8.35 212.60,9.40 210.35,11.15 209.60,13.60"/>
    </edge>
    <edge id=":mainOutOfTown3_7" function="internal">
        <lane id=":mainOutOfTown3_7_0" index="0" speed="13.89" length="27.20" shape="221.60,8.00 194.40,8.00"/>
        <lane id=":mainOutOfTown3_7_1" index="1" speed="13.89" length="27.20" shape="221.60,4.80 194.40,4.80"/>
        <lane id=":mainOutOfTown3_7_2" index="2" speed="13.89" length="27.20" shape="221.60,1.60 194.40,1.60"/>
    </edge>
    <edge id=":out_0" function="internal">