<?xml version="1.0" encoding="UTF-8"?>

<!-- generated on 2024-10-27 12:35:30.489145 by buildScenario.py v1_20_0+0002-343658e7c64
  options: 
-->

<additional xmlns:xsi="http://www.w3.org/2001/XMLSchema-instance" xsi:noNamespaceSchemaLocation="http://sumo.dlr.de/xsd/additional_file.xsd">
    <parkingArea id="ParkArea0" lane="road0_1" roadsideCapacity="10" angle="270" length="8"> 
    </parkingArea>
    <parkingArea id="ParkArea-0" lane="-road0_1" roadsideCapacity="10" angle="270" length="8"> 
    </parkingArea>
    <parkingArea id="ParkArea1" lane="road1_1" roadsideCapacity="10" angle="270" length="8"> 
    </parkingArea>
    <parkingArea id="ParkArea-1" lane="-road1_1" roadsideCapacity="10" angle="270" length="8"> 
    </parkingArea>
    <parkingArea id="ParkAreaAlternative0" lane="roadAlternative0_1" roadsideCapacity="10" angle="270" length="8"> 
    </parkingArea>
    <parkingArea id="ParkAreaAlternative-0" lane="-roadAlternative0_1" roadsideCapacity="10" angle="270" length="8"> 
    </parkingArea>
    <parkingArea id="ParkAreaAlternative1" lane="roadAlternative1_1" roadsideCapacity="10" angle="270" length="8"> 
    </parkingArea>
    <parkingArea id="ParkAreaAlternative-1" lane="-roadAlternative1_1" roadsideCapacity="10" angle="270" length="8"> 
    </parkingArea>
    <parkingArea id="ParkAreaOutOfTown0" lane="roadOutOfTown0_1" roadsideCapacity="10" angle="270" length="8"> 
    </parkingArea>
    <parkingArea id="ParkAreaOutOfTown-0" lane="-roadOutOfTown0_1" roadsideCapacity="10" angle="270" length="8"> 
    </parkingArea>
    <parkingArea id="ParkAreaOutOfTown1" lane="roadOutOfTown1_1" roadsideCapacity="10" angle="270" length="8"> 
    </parkingArea>
    <parkingArea id="ParkAreaOutOfTown-1" lane="-roadOutOfTown1_1" roadsideCapacity="10" angle="270" length="8"> 
    </parkingArea>
    <parkingArea id="ParkAreaOutOfTown2" lane="roadOutOfTown2_1" roadsideCapacity="10" angle="270" length="8"> 
    </parkingArea>
    <parkingArea id="ParkAreaOutOfTown-2" lane="-roadOutOfTown2_1" roadsideCapacity="10" angle="270" length="8"> 
    </parkingArea>
    <parkingArea id="ParkAreaOutOfTown3" lane="roadOutOfTown3_1" roadsideCapacity="10" angle="270" length="8"> 
    </parkingArea>
    <parkingArea id="ParkAreaOutOfTown-3" lane="-roadOutOfTown3_1" roadsideCapacity="10" angle="270" length="8"> 
    </parkingArea>
    <vType id="car" color="0.7,0.7,0.7"/> <vType id="carB" color="red"/>

</additional>
